/*--------------------------------*- C++ -*----------------------------------*\
  =========                 |
  \\      /  F ield         | OpenFOAM: The Open Source CFD Toolbox
   \\    /   O peration     | Website:  https://openfoam.org
    \\  /    A nd           | Version:  10
     \\/     M anipulation  |
\*---------------------------------------------------------------------------*/
FoamFile
{
    format      ascii;
    class       dictionary;
    location    "system/negative_electrode";
    object      fvSolution;
}
// * * * * * * * * * * * * * * * * * * * * * * * * * * * * * * * * * * * * * //

solvers
{
    "p.*"
    {
        solver           GAMG;
        smoother         symGaussSeidel;
        tolerance        1e-7;
        relTol           0.01;
    }

    "(U|h).*"
    {
        solver           PBiCGStab;
        preconditioner   DILU;
        tolerance        1e-7;
        relTol           0.1;
    }

    "(V|SO4|HSO4).*"
    {
        solver           PBiCGStab;
        preconditioner   DILU;
        tolerance        1e-7;
        relTol           1e-3;
        minIter          1;
    }

    "electrode_potential"
    {
        solver           GAMG;
        smoother         symGaussSeidel;
        tolerance        1e-7;
        relTol           1e-3;
        minIter          1;
    }
}

PIMPLE
{
    momentumPredictor   yes;
    thermophysics       yes;
}

relaxationFactors
{
    fields
    {
        p               	0.7;
    }
    equations
    {
        U               	0.3;
        electrode_potential     1;
        V2			1;
        V3			1;
        HSO4		 	1;
        total_sulfate           1;

    }
}

// ************************************************************************* //