/*--------------------------------*- C++ -*----------------------------------*\
  =========                 |
  \\      /  F ield         | OpenFOAM: The Open Source CFD Toolbox
   \\    /   O peration     | Website:  https://openfoam.org
    \\  /    A nd           | Version:  10
     \\/     M anipulation  |
\*---------------------------------------------------------------------------*/
FoamFile
{
    format      ascii;
    class       dictionary;
    location    "constant/positive_electrode";
    object      solutionProperties;
}
// * * * * * * * * * * * * * * * * * * * * * * * * * * * * * * * * * * * * * //

type                newVanadiumSolutionSulfateTransport;
speciesNumber       5;

vanadiumComponents       (VO2 VO);
vanadiumCompCharges      (1 2);
vanadiumOxidationStates  (5 4);

molecularDiffusivity     (3.9e-10 3.9e-10 9.312e-9 1.33e-9 1.065e-9);

smallConc           1e-6;
minActiveConc       1e-4;

nernstEquation
{
    E0                      1.004;
    nElectrons              1;
    
    numeratorCompNames      (VO2 H);
    numeratorCompExponents  (1 2);
    denominatorCompNames    (VO);
    denominatorCompExponents (1);
}

// ************************************************************************* //