/*--------------------------------*- C++ -*----------------------------------*\
  =========                 |
  \\      /  F ield         | OpenFOAM: The Open Source CFD Toolbox
   \\    /   O peration     | Website:  https://openfoam.org
    \\  /    A nd           | Version:  10
     \\/     M anipulation  |
\*---------------------------------------------------------------------------*/
FoamFile
{
    format      ascii;
    class       dictionary;
    location    "system/separator";
    object      fvSchemes;
}
// * * * * * * * * * * * * * * * * * * * * * * * * * * * * * * * * * * * * * //

ddtSchemes
{
    default         steadyState;
}

gradSchemes
{
    default         Gauss linear;
}

divSchemes
{
    default         none;

    div(phi,U)      		Gauss upwind;

    div(phi,V2)                	Gauss linearUpwind grad(V2);
    div(phi,V3)                	Gauss linearUpwind grad(V3);
    div(phi,VO)                	Gauss linearUpwind grad(VO);
    div(phi,VO2)                Gauss linearUpwind grad(VO2);
    div(phi,total_sulfate)     	Gauss linearUpwind grad(total_sulfate);

    div(migration,V2)                Gauss upwind;
    div(migration,V3)                Gauss upwind;
    div(migration,VO)                Gauss upwind;
    div(migration,VO2)                Gauss upwind;
    div(migration,total_sulfate)     Gauss upwind;

    div(phi,h)      Gauss upwind;
    div(phi,K)      Gauss linear;
    div(((rho*nuEff)*dev2(T(grad(U))))) Gauss linear;
}

laplacianSchemes
{
    default         Gauss linear corrected;
}

interpolationSchemes
{
    default         linear;
}

snGradSchemes
{
    default         corrected;
}


// ************************************************************************* //
